<?xml version="1.0" encoding="UTF-8"?>

<!-- generated on 2021-10-11 15:41:01 by Eclipse SUMO jtrrouter Version 1.10.0
<configuration xmlns:xsi="http://www.w3.org/2001/XMLSchema-instance" xsi:noNamespaceSchemaLocation="http://sumo.dlr.de/xsd/jtrrouterConfiguration.xsd">

    <input>
        <net-file value="Baitaptuan.net.xml"/>
        <route-files value="flow.xml"/>
        <turn-ratio-files value="des.xml"/>
    </input>

    <output>
        <output-file value="Baitaptuan.rou.xml"/>
    </output>

    <processing>
        <no-internal-links value="true"/>
    </processing>

    <time>
        <begin value="0"/>
        <end value="100"/>
    </time>

</configuration>
-->

<routes xmlns:xsi="http://www.w3.org/2001/XMLSchema-instance" xsi:noNamespaceSchemaLocation="http://sumo.dlr.de/xsd/routes_file.xsd">
    <vehicle id="route_10.0" depart="0.00">
        <route edges="gneE6 gneE3"/>
    </vehicle>
    <vehicle id="route_4.0" depart="0.00">
        <route edges="gneE4 gneE1"/>
    </vehicle>
    <vehicle id="route_7.0" depart="0.00">
        <route edges="gneE5 gneE7"/>
    </vehicle>
    <vehicle id="route_9.0" depart="0.00">
        <route edges="gneE6 gneE7"/>
    </vehicle>
    <vehicle id="route_1.0" depart="1.00">
        <route edges="gneE0 gneE2"/>
    </vehicle>
    <vehicle id="route_10.1" depart="1.00">
        <route edges="gneE6 gneE3"/>
    </vehicle>
    <vehicle id="route_2.0" depart="1.00">
        <route edges="gneE0 gneE1"/>
    </vehicle>
    <vehicle id="route_5.0" depart="1.00">
        <route edges="gneE4 gneE7"/>
    </vehicle>
    <vehicle id="route_7.1" depart="1.00">
        <route edges="gneE5 gneE7"/>
    </vehicle>
    <vehicle id="route_0.0" depart="2.00">
        <route edges="gneE0 gneE3"/>
    </vehicle>
    <vehicle id="route_2.1" depart="2.00">
        <route edges="gneE0 gneE1"/>
    </vehicle>
    <vehicle id="route_4.1" depart="2.00">
        <route edges="gneE4 gneE1"/>
    </vehicle>
    <vehicle id="route_5.1" depart="2.00">
        <route edges="gneE4 gneE7"/>
    </vehicle>
    <vehicle id="route_6.0" depart="2.00">
        <route edges="gneE5 gneE1"/>
    </vehicle>
    <vehicle id="route_7.2" depart="2.00">
        <route edges="gneE5 gneE7"/>
    </vehicle>
    <vehicle id="route_10.2" depart="3.00">
        <route edges="gneE6 gneE3"/>
    </vehicle>
    <vehicle id="route_11.0" depart="3.00">
        <route edges="gneE6 gneE2"/>
    </vehicle>
    <vehicle id="route_4.2" depart="3.00">
        <route edges="gneE4 gneE1"/>
    </vehicle>
    <vehicle id="route_7.3" depart="3.00">
        <route edges="gneE5 gneE7"/>
    </vehicle>
    <vehicle id="route_3.0" depart="4.00">
        <route edges="gneE4 gneE2"/>
    </vehicle>
    <vehicle id="route_7.4" depart="4.00">
        <route edges="gneE5 gneE7"/>
    </vehicle>
    <vehicle id="route_0.1" depart="5.00">
        <route edges="gneE0 gneE3"/>
    </vehicle>
    <vehicle id="route_1.1" depart="5.00">
        <route edges="gneE0 gneE2"/>
    </vehicle>
    <vehicle id="route_2.2" depart="5.00">
        <route edges="gneE0 gneE1"/>
    </vehicle>
    <vehicle id="route_4.3" depart="5.00">
        <route edges="gneE4 gneE1"/>
    </vehicle>
    <vehicle id="route_1.2" depart="6.00">
        <route edges="gneE0 gneE2"/>
    </vehicle>
    <vehicle id="route_4.4" depart="6.00">
        <route edges="gneE4 gneE1"/>
    </vehicle>
    <vehicle id="route_0.2" depart="7.00">
        <route edges="gneE0 gneE3"/>
    </vehicle>
    <vehicle id="route_1.3" depart="7.00">
        <route edges="gneE0 gneE2"/>
    </vehicle>
    <vehicle id="route_10.3" depart="7.00">
        <route edges="gneE6 gneE3"/>
    </vehicle>
    <vehicle id="route_3.1" depart="7.00">
        <route edges="gneE4 gneE2"/>
    </vehicle>
    <vehicle id="route_4.5" depart="7.00">
        <route edges="gneE4 gneE1"/>
    </vehicle>
    <vehicle id="route_6.1" depart="7.00">
        <route edges="gneE5 gneE1"/>
    </vehicle>
    <vehicle id="route_10.4" depart="8.00">
        <route edges="gneE6 gneE3"/>
    </vehicle>
    <vehicle id="route_11.1" depart="8.00">
        <route edges="gneE6 gneE2"/>
    </vehicle>
    <vehicle id="route_2.3" depart="8.00">
        <route edges="gneE0 gneE1"/>
    </vehicle>
    <vehicle id="route_3.2" depart="8.00">
        <route edges="gneE4 gneE2"/>
    </vehicle>
    <vehicle id="route_5.2" depart="8.00">
        <route edges="gneE4 gneE7"/>
    </vehicle>
    <vehicle id="route_8.0" depart="8.00">
        <route edges="gneE5 gneE3"/>
    </vehicle>
    <vehicle id="route_9.1" depart="8.00">
        <route edges="gneE6 gneE7"/>
    </vehicle>
    <vehicle id="route_1.4" depart="9.00">
        <route edges="gneE0 gneE2"/>
    </vehicle>
    <vehicle id="route_10.5" depart="9.00">
        <route edges="gneE6 gneE3"/>
    </vehicle>
    <vehicle id="route_2.4" depart="9.00">
        <route edges="gneE0 gneE1"/>
    </vehicle>
    <vehicle id="route_7.5" depart="9.00">
        <route edges="gneE5 gneE7"/>
    </vehicle>
    <vehicle id="route_0.3" depart="10.00">
        <route edges="gneE0 gneE3"/>
    </vehicle>
    <vehicle id="route_1.5" depart="10.00">
        <route edges="gneE0 gneE2"/>
    </vehicle>
    <vehicle id="route_3.3" depart="10.00">
        <route edges="gneE4 gneE2"/>
    </vehicle>
    <vehicle id="route_7.6" depart="10.00">
        <route edges="gneE5 gneE7"/>
    </vehicle>
    <vehicle id="route_8.1" depart="10.00">
        <route edges="gneE5 gneE3"/>
    </vehicle>
    <vehicle id="route_10.6" depart="11.00">
        <route edges="gneE6 gneE3"/>
    </vehicle>
    <vehicle id="route_11.2" depart="11.00">
        <route edges="gneE6 gneE2"/>
    </vehicle>
    <vehicle id="route_4.6" depart="11.00">
        <route edges="gneE4 gneE1"/>
    </vehicle>
    <vehicle id="route_7.7" depart="11.00">
        <route edges="gneE5 gneE7"/>
    </vehicle>
    <vehicle id="route_10.7" depart="12.00">
        <route edges="gneE6 gneE3"/>
    </vehicle>
    <vehicle id="route_5.3" depart="12.00">
        <route edges="gneE4 gneE7"/>
    </vehicle>
    <vehicle id="route_6.2" depart="12.00">
        <route edges="gneE5 gneE1"/>
    </vehicle>
    <vehicle id="route_8.2" depart="12.00">
        <route edges="gneE5 gneE3"/>
    </vehicle>
    <vehicle id="route_1.6" depart="13.00">
        <route edges="gneE0 gneE2"/>
    </vehicle>
    <vehicle id="route_4.7" depart="13.00">
        <route edges="gneE4 gneE1"/>
    </vehicle>
    <vehicle id="route_7.8" depart="13.00">
        <route edges="gneE5 gneE7"/>
    </vehicle>
    <vehicle id="route_8.3" depart="13.00">
        <route edges="gneE5 gneE3"/>
    </vehicle>
    <vehicle id="route_9.2" depart="13.00">
        <route edges="gneE6 gneE7"/>
    </vehicle>
    <vehicle id="route_11.3" depart="14.00">
        <route edges="gneE6 gneE2"/>
    </vehicle>
    <vehicle id="route_4.8" depart="14.00">
        <route edges="gneE4 gneE1"/>
    </vehicle>
    <vehicle id="route_6.3" depart="14.00">
        <route edges="gneE5 gneE1"/>
    </vehicle>
    <vehicle id="route_7.9" depart="14.00">
        <route edges="gneE5 gneE7"/>
    </vehicle>
    <vehicle id="route_9.3" depart="14.00">
        <route edges="gneE6 gneE7"/>
    </vehicle>
    <vehicle id="route_1.7" depart="15.00">
        <route edges="gneE0 gneE2"/>
    </vehicle>
    <vehicle id="route_11.4" depart="15.00">
        <route edges="gneE6 gneE2"/>
    </vehicle>
    <vehicle id="route_3.4" depart="15.00">
        <route edges="gneE4 gneE2"/>
    </vehicle>
    <vehicle id="route_6.4" depart="15.00">
        <route edges="gneE5 gneE1"/>
    </vehicle>
    <vehicle id="route_7.10" depart="15.00">
        <route edges="gneE5 gneE7"/>
    </vehicle>
    <vehicle id="route_9.4" depart="15.00">
        <route edges="gneE6 gneE7"/>
    </vehicle>
    <vehicle id="route_0.4" depart="16.00">
        <route edges="gneE0 gneE3"/>
    </vehicle>
    <vehicle id="route_10.8" depart="16.00">
        <route edges="gneE6 gneE3"/>
    </vehicle>
    <vehicle id="route_11.5" depart="16.00">
        <route edges="gneE6 gneE2"/>
    </vehicle>
    <vehicle id="route_1.8" depart="17.00">
        <route edges="gneE0 gneE2"/>
    </vehicle>
    <vehicle id="route_11.6" depart="17.00">
        <route edges="gneE6 gneE2"/>
    </vehicle>
    <vehicle id="route_4.9" depart="17.00">
        <route edges="gneE4 gneE1"/>
    </vehicle>
    <vehicle id="route_7.11" depart="17.00">
        <route edges="gneE5 gneE7"/>
    </vehicle>
    <vehicle id="route_10.9" depart="18.00">
        <route edges="gneE6 gneE3"/>
    </vehicle>
    <vehicle id="route_11.7" depart="18.00">
        <route edges="gneE6 gneE2"/>
    </vehicle>
    <vehicle id="route_9.5" depart="18.00">
        <route edges="gneE6 gneE7"/>
    </vehicle>
    <vehicle id="route_1.9" depart="19.00">
        <route edges="gneE0 gneE2"/>
    </vehicle>
    <vehicle id="route_10.10" depart="19.00">
        <route edges="gneE6 gneE3"/>
    </vehicle>
    <vehicle id="route_3.5" depart="19.00">
        <route edges="gneE4 gneE2"/>
    </vehicle>
    <vehicle id="route_5.4" depart="19.00">
        <route edges="gneE4 gneE7"/>
    </vehicle>
    <vehicle id="route_0.5" depart="20.00">
        <route edges="gneE0 gneE3"/>
    </vehicle>
    <vehicle id="route_1.10" depart="20.00">
        <route edges="gneE0 gneE2"/>
    </vehicle>
    <vehicle id="route_6.5" depart="20.00">
        <route edges="gneE5 gneE1"/>
    </vehicle>
    <vehicle id="route_9.6" depart="20.00">
        <route edges="gneE6 gneE7"/>
    </vehicle>
    <vehicle id="route_1.11" depart="21.00">
        <route edges="gneE0 gneE2"/>
    </vehicle>
    <vehicle id="route_10.11" depart="21.00">
        <route edges="gneE6 gneE3"/>
    </vehicle>
    <vehicle id="route_4.10" depart="21.00">
        <route edges="gneE4 gneE1"/>
    </vehicle>
    <vehicle id="route_6.6" depart="21.00">
        <route edges="gneE5 gneE1"/>
    </vehicle>
    <vehicle id="route_7.12" depart="21.00">
        <route edges="gneE5 gneE7"/>
    </vehicle>
    <vehicle id="route_8.4" depart="21.00">
        <route edges="gneE5 gneE3"/>
    </vehicle>
    <vehicle id="route_9.7" depart="21.00">
        <route edges="gneE6 gneE7"/>
    </vehicle>
    <vehicle id="route_1.12" depart="22.00">
        <route edges="gneE0 gneE2"/>
    </vehicle>
    <vehicle id="route_3.6" depart="22.00">
        <route edges="gneE4 gneE2"/>
    </vehicle>
    <vehicle id="route_4.11" depart="22.00">
        <route edges="gneE4 gneE1"/>
    </vehicle>
    <vehicle id="route_5.5" depart="22.00">
        <route edges="gneE4 gneE7"/>
    </vehicle>
    <vehicle id="route_6.7" depart="22.00">
        <route edges="gneE5 gneE1"/>
    </vehicle>
    <vehicle id="route_7.13" depart="22.00">
        <route edges="gneE5 gneE7"/>
    </vehicle>
    <vehicle id="route_10.12" depart="23.00">
        <route edges="gneE6 gneE3"/>
    </vehicle>
    <vehicle id="route_11.8" depart="23.00">
        <route edges="gneE6 gneE2"/>
    </vehicle>
    <vehicle id="route_2.5" depart="23.00">
        <route edges="gneE0 gneE1"/>
    </vehicle>
    <vehicle id="route_3.7" depart="23.00">
        <route edges="gneE4 gneE2"/>
    </vehicle>
    <vehicle id="route_7.14" depart="23.00">
        <route edges="gneE5 gneE7"/>
    </vehicle>
    <vehicle id="route_9.8" depart="23.00">
        <route edges="gneE6 gneE7"/>
    </vehicle>
    <vehicle id="route_2.6" depart="24.00">
        <route edges="gneE0 gneE1"/>
    </vehicle>
    <vehicle id="route_7.15" depart="24.00">
        <route edges="gneE5 gneE7"/>
    </vehicle>
    <vehicle id="route_3.8" depart="25.00">
        <route edges="gneE4 gneE2"/>
    </vehicle>
    <vehicle id="route_4.12" depart="25.00">
        <route edges="gneE4 gneE1"/>
    </vehicle>
    <vehicle id="route_5.6" depart="25.00">
        <route edges="gneE4 gneE7"/>
    </vehicle>
    <vehicle id="route_8.5" depart="25.00">
        <route edges="gneE5 gneE3"/>
    </vehicle>
    <vehicle id="route_9.9" depart="25.00">
        <route edges="gneE6 gneE7"/>
    </vehicle>
    <vehicle id="route_1.13" depart="26.00">
        <route edges="gneE0 gneE2"/>
    </vehicle>
    <vehicle id="route_5.7" depart="26.00">
        <route edges="gneE4 gneE7"/>
    </vehicle>
    <vehicle id="route_7.16" depart="26.00">
        <route edges="gneE5 gneE7"/>
    </vehicle>
    <vehicle id="route_10.13" depart="27.00">
        <route edges="gneE6 gneE3"/>
    </vehicle>
    <vehicle id="route_3.9" depart="27.00">
        <route edges="gneE4 gneE2"/>
    </vehicle>
    <vehicle id="route_4.13" depart="27.00">
        <route edges="gneE4 gneE1"/>
    </vehicle>
    <vehicle id="route_7.17" depart="27.00">
        <route edges="gneE5 gneE7"/>
    </vehicle>
    <vehicle id="route_8.6" depart="27.00">
        <route edges="gneE5 gneE3"/>
    </vehicle>
    <vehicle id="route_1.14" depart="28.00">
        <route edges="gneE0 gneE2"/>
    </vehicle>
    <vehicle id="route_4.14" depart="28.00">
        <route edges="gneE4 gneE1"/>
    </vehicle>
    <vehicle id="route_7.18" depart="28.00">
        <route edges="gneE5 gneE7"/>
    </vehicle>
    <vehicle id="route_0.6" depart="29.00">
        <route edges="gneE0 gneE3"/>
    </vehicle>
    <vehicle id="route_10.14" depart="29.00">
        <route edges="gneE6 gneE3"/>
    </vehicle>
    <vehicle id="route_2.7" depart="29.00">
        <route edges="gneE0 gneE1"/>
    </vehicle>
    <vehicle id="route_6.8" depart="29.00">
        <route edges="gneE5 gneE1"/>
    </vehicle>
    <vehicle id="route_0.7" depart="30.00">
        <route edges="gneE0 gneE3"/>
    </vehicle>
    <vehicle id="route_1.15" depart="30.00">
        <route edges="gneE0 gneE2"/>
    </vehicle>
    <vehicle id="route_10.15" depart="30.00">
        <route edges="gneE6 gneE3"/>
    </vehicle>
    <vehicle id="route_2.8" depart="30.00">
        <route edges="gneE0 gneE1"/>
    </vehicle>
    <vehicle id="route_3.10" depart="30.00">
        <route edges="gneE4 gneE2"/>
    </vehicle>
    <vehicle id="route_7.19" depart="30.00">
        <route edges="gneE5 gneE7"/>
    </vehicle>
    <vehicle id="route_9.10" depart="30.00">
        <route edges="gneE6 gneE7"/>
    </vehicle>
    <vehicle id="route_10.16" depart="31.00">
        <route edges="gneE6 gneE3"/>
    </vehicle>
    <vehicle id="route_11.9" depart="31.00">
        <route edges="gneE6 gneE2"/>
    </vehicle>
    <vehicle id="route_5.8" depart="31.00">
        <route edges="gneE4 gneE7"/>
    </vehicle>
    <vehicle id="route_1.16" depart="32.00">
        <route edges="gneE0 gneE2"/>
    </vehicle>
    <vehicle id="route_10.17" depart="32.00">
        <route edges="gneE6 gneE3"/>
    </vehicle>
    <vehicle id="route_5.9" depart="32.00">
        <route edges="gneE4 gneE7"/>
    </vehicle>
    <vehicle id="route_0.8" depart="33.00">
        <route edges="gneE0 gneE3"/>
    </vehicle>
    <vehicle id="route_1.17" depart="33.00">
        <route edges="gneE0 gneE2"/>
    </vehicle>
    <vehicle id="route_10.18" depart="33.00">
        <route edges="gneE6 gneE3"/>
    </vehicle>
    <vehicle id="route_8.7" depart="33.00">
        <route edges="gneE5 gneE3"/>
    </vehicle>
    <vehicle id="route_10.19" depart="34.00">
        <route edges="gneE6 gneE3"/>
    </vehicle>
    <vehicle id="route_11.10" depart="34.00">
        <route edges="gneE6 gneE2"/>
    </vehicle>
    <vehicle id="route_3.11" depart="34.00">
        <route edges="gneE4 gneE2"/>
    </vehicle>
    <vehicle id="route_4.15" depart="34.00">
        <route edges="gneE4 gneE1"/>
    </vehicle>
    <vehicle id="route_7.20" depart="34.00">
        <route edges="gneE5 gneE7"/>
    </vehicle>
    <vehicle id="route_8.8" depart="34.00">
        <route edges="gneE5 gneE3"/>
    </vehicle>
    <vehicle id="route_9.11" depart="34.00">
        <route edges="gneE6 gneE7"/>
    </vehicle>
    <vehicle id="route_0.9" depart="35.00">
        <route edges="gneE0 gneE3"/>
    </vehicle>
    <vehicle id="route_11.11" depart="35.00">
        <route edges="gneE6 gneE2"/>
    </vehicle>
    <vehicle id="route_2.9" depart="35.00">
        <route edges="gneE0 gneE1"/>
    </vehicle>
    <vehicle id="route_5.10" depart="35.00">
        <route edges="gneE4 gneE7"/>
    </vehicle>
    <vehicle id="route_8.9" depart="35.00">
        <route edges="gneE5 gneE3"/>
    </vehicle>
    <vehicle id="route_9.12" depart="35.00">
        <route edges="gneE6 gneE7"/>
    </vehicle>
    <vehicle id="route_11.12" depart="36.00">
        <route edges="gneE6 gneE2"/>
    </vehicle>
    <vehicle id="route_4.16" depart="36.00">
        <route edges="gneE4 gneE1"/>
    </vehicle>
    <vehicle id="route_6.9" depart="36.00">
        <route edges="gneE5 gneE1"/>
    </vehicle>
    <vehicle id="route_1.18" depart="37.00">
        <route edges="gneE0 gneE2"/>
    </vehicle>
    <vehicle id="route_10.20" depart="37.00">
        <route edges="gneE6 gneE3"/>
    </vehicle>
    <vehicle id="route_11.13" depart="37.00">
        <route edges="gneE6 gneE2"/>
    </vehicle>
    <vehicle id="route_4.17" depart="37.00">
        <route edges="gneE4 gneE1"/>
    </vehicle>
    <vehicle id="route_5.11" depart="37.00">
        <route edges="gneE4 gneE7"/>
    </vehicle>
    <vehicle id="route_6.10" depart="37.00">
        <route edges="gneE5 gneE1"/>
    </vehicle>
    <vehicle id="route_7.21" depart="37.00">
        <route edges="gneE5 gneE7"/>
    </vehicle>
    <vehicle id="route_0.10" depart="38.00">
        <route edges="gneE0 gneE3"/>
    </vehicle>
    <vehicle id="route_7.22" depart="38.00">
        <route edges="gneE5 gneE7"/>
    </vehicle>
    <vehicle id="route_0.11" depart="39.00">
        <route edges="gneE0 gneE3"/>
    </vehicle>
    <vehicle id="route_10.21" depart="39.00">
        <route edges="gneE6 gneE3"/>
    </vehicle>
    <vehicle id="route_3.12" depart="39.00">
        <route edges="gneE4 gneE2"/>
    </vehicle>
    <vehicle id="route_9.13" depart="39.00">
        <route edges="gneE6 gneE7"/>
    </vehicle>
    <vehicle id="route_10.22" depart="40.00">
        <route edges="gneE6 gneE3"/>
    </vehicle>
    <vehicle id="route_4.18" depart="40.00">
        <route edges="gneE4 gneE1"/>
    </vehicle>
    <vehicle id="route_8.10" depart="40.00">
        <route edges="gneE5 gneE3"/>
    </vehicle>
    <vehicle id="route_9.14" depart="40.00">
        <route edges="gneE6 gneE7"/>
    </vehicle>
    <vehicle id="route_10.23" depart="41.00">
        <route edges="gneE6 gneE3"/>
    </vehicle>
    <vehicle id="route_4.19" depart="41.00">
        <route edges="gneE4 gneE1"/>
    </vehicle>
    <vehicle id="route_7.23" depart="41.00">
        <route edges="gneE5 gneE7"/>
    </vehicle>
    <vehicle id="route_11.14" depart="42.00">
        <route edges="gneE6 gneE2"/>
    </vehicle>
    <vehicle id="route_7.24" depart="42.00">
        <route edges="gneE5 gneE7"/>
    </vehicle>
    <vehicle id="route_0.12" depart="43.00">
        <route edges="gneE0 gneE3"/>
    </vehicle>
    <vehicle id="route_1.19" depart="43.00">
        <route edges="gneE0 gneE2"/>
    </vehicle>
    <vehicle id="route_10.24" depart="43.00">
        <route edges="gneE6 gneE3"/>
    </vehicle>
    <vehicle id="route_3.13" depart="43.00">
        <route edges="gneE4 gneE2"/>
    </vehicle>
    <vehicle id="route_9.15" depart="43.00">
        <route edges="gneE6 gneE7"/>
    </vehicle>
    <vehicle id="route_0.13" depart="44.00">
        <route edges="gneE0 gneE3"/>
    </vehicle>
    <vehicle id="route_10.25" depart="44.00">
        <route edges="gneE6 gneE3"/>
    </vehicle>
    <vehicle id="route_4.20" depart="44.00">
        <route edges="gneE4 gneE1"/>
    </vehicle>
    <vehicle id="route_7.25" depart="44.00">
        <route edges="gneE5 gneE7"/>
    </vehicle>
    <vehicle id="route_10.26" depart="45.00">
        <route edges="gneE6 gneE3"/>
    </vehicle>
    <vehicle id="route_11.15" depart="45.00">
        <route edges="gneE6 gneE2"/>
    </vehicle>
    <vehicle id="route_2.10" depart="45.00">
        <route edges="gneE0 gneE1"/>
    </vehicle>
    <vehicle id="route_4.21" depart="45.00">
        <route edges="gneE4 gneE1"/>
    </vehicle>
    <vehicle id="route_5.12" depart="45.00">
        <route edges="gneE4 gneE7"/>
    </vehicle>
    <vehicle id="route_0.14" depart="46.00">
        <route edges="gneE0 gneE3"/>
    </vehicle>
    <vehicle id="route_1.20" depart="46.00">
        <route edges="gneE0 gneE2"/>
    </vehicle>
    <vehicle id="route_2.11" depart="46.00">
        <route edges="gneE0 gneE1"/>
    </vehicle>
    <vehicle id="route_5.13" depart="46.00">
        <route edges="gneE4 gneE7"/>
    </vehicle>
    <vehicle id="route_10.27" depart="47.00">
        <route edges="gneE6 gneE3"/>
    </vehicle>
    <vehicle id="route_3.14" depart="47.00">
        <route edges="gneE4 gneE2"/>
    </vehicle>
    <vehicle id="route_5.14" depart="47.00">
        <route edges="gneE4 gneE7"/>
    </vehicle>
    <vehicle id="route_9.16" depart="47.00">
        <route edges="gneE6 gneE7"/>
    </vehicle>
    <vehicle id="route_0.15" depart="48.00">
        <route edges="gneE0 gneE3"/>
    </vehicle>
    <vehicle id="route_1.21" depart="48.00">
        <route edges="gneE0 gneE2"/>
    </vehicle>
    <vehicle id="route_10.28" depart="48.00">
        <route edges="gneE6 gneE3"/>
    </vehicle>
    <vehicle id="route_4.22" depart="48.00">
        <route edges="gneE4 gneE1"/>
    </vehicle>
    <vehicle id="route_6.11" depart="48.00">
        <route edges="gneE5 gneE1"/>
    </vehicle>
    <vehicle id="route_7.26" depart="48.00">
        <route edges="gneE5 gneE7"/>
    </vehicle>
    <vehicle id="route_1.22" depart="49.00">
        <route edges="gneE0 gneE2"/>
    </vehicle>
    <vehicle id="route_10.29" depart="49.00">
        <route edges="gneE6 gneE3"/>
    </vehicle>
    <vehicle id="route_7.27" depart="49.00">
        <route edges="gneE5 gneE7"/>
    </vehicle>
    <vehicle id="route_10.30" depart="50.00">
        <route edges="gneE6 gneE3"/>
    </vehicle>
    <vehicle id="route_6.12" depart="50.00">
        <route edges="gneE5 gneE1"/>
    </vehicle>
    <vehicle id="route_1.23" depart="51.00">
        <route edges="gneE0 gneE2"/>
    </vehicle>
    <vehicle id="route_11.16" depart="51.00">
        <route edges="gneE6 gneE2"/>
    </vehicle>
    <vehicle id="route_4.23" depart="51.00">
        <route edges="gneE4 gneE1"/>
    </vehicle>
    <vehicle id="route_7.28" depart="51.00">
        <route edges="gneE5 gneE7"/>
    </vehicle>
    <vehicle id="route_1.24" depart="52.00">
        <route edges="gneE0 gneE2"/>
    </vehicle>
    <vehicle id="route_11.17" depart="52.00">
        <route edges="gneE6 gneE2"/>
    </vehicle>
    <vehicle id="route_4.24" depart="52.00">
        <route edges="gneE4 gneE1"/>
    </vehicle>
    <vehicle id="route_5.15" depart="52.00">
        <route edges="gneE4 gneE7"/>
    </vehicle>
    <vehicle id="route_1.25" depart="53.00">
        <route edges="gneE0 gneE2"/>
    </vehicle>
    <vehicle id="route_2.12" depart="53.00">
        <route edges="gneE0 gneE1"/>
    </vehicle>
    <vehicle id="route_4.25" depart="53.00">
        <route edges="gneE4 gneE1"/>
    </vehicle>
    <vehicle id="route_7.29" depart="53.00">
        <route edges="gneE5 gneE7"/>
    </vehicle>
    <vehicle id="route_4.26" depart="54.00">
        <route edges="gneE4 gneE1"/>
    </vehicle>
    <vehicle id="route_8.11" depart="54.00">
        <route edges="gneE5 gneE3"/>
    </vehicle>
    <vehicle id="route_10.31" depart="55.00">
        <route edges="gneE6 gneE3"/>
    </vehicle>
    <vehicle id="route_4.27" depart="55.00">
        <route edges="gneE4 gneE1"/>
    </vehicle>
    <vehicle id="route_1.26" depart="56.00">
        <route edges="gneE0 gneE2"/>
    </vehicle>
    <vehicle id="route_7.30" depart="56.00">
        <route edges="gneE5 gneE7"/>
    </vehicle>
    <vehicle id="route_1.27" depart="57.00">
        <route edges="gneE0 gneE2"/>
    </vehicle>
    <vehicle id="route_4.28" depart="57.00">
        <route edges="gneE4 gneE1"/>
    </vehicle>
    <vehicle id="route_7.31" depart="57.00">
        <route edges="gneE5 gneE7"/>
    </vehicle>
    <vehicle id="route_9.17" depart="57.00">
        <route edges="gneE6 gneE7"/>
    </vehicle>
    <vehicle id="route_0.16" depart="58.00">
        <route edges="gneE0 gneE3"/>
    </vehicle>
    <vehicle id="route_10.32" depart="58.00">
        <route edges="gneE6 gneE3"/>
    </vehicle>
    <vehicle id="route_2.13" depart="58.00">
        <route edges="gneE0 gneE1"/>
    </vehicle>
    <vehicle id="route_1.28" depart="59.00">
        <route edges="gneE0 gneE2"/>
    </vehicle>
    <vehicle id="route_10.33" depart="59.00">
        <route edges="gneE6 gneE3"/>
    </vehicle>
    <vehicle id="route_7.32" depart="59.00">
        <route edges="gneE5 gneE7"/>
    </vehicle>
    <vehicle id="route_8.12" depart="59.00">
        <route edges="gneE5 gneE3"/>
    </vehicle>
    <vehicle id="route_0.17" depart="60.00">
        <route edges="gneE0 gneE3"/>
    </vehicle>
    <vehicle id="route_1.29" depart="60.00">
        <route edges="gneE0 gneE2"/>
    </vehicle>
    <vehicle id="route_10.34" depart="60.00">
        <route edges="gneE6 gneE3"/>
    </vehicle>
    <vehicle id="route_4.29" depart="60.00">
        <route edges="gneE4 gneE1"/>
    </vehicle>
    <vehicle id="route_7.33" depart="60.00">
        <route edges="gneE5 gneE7"/>
    </vehicle>
    <vehicle id="route_11.18" depart="61.00">
        <route edges="gneE6 gneE2"/>
    </vehicle>
    <vehicle id="route_3.15" depart="61.00">
        <route edges="gneE4 gneE2"/>
    </vehicle>
    <vehicle id="route_0.18" depart="62.00">
        <route edges="gneE0 gneE3"/>
    </vehicle>
    <vehicle id="route_10.35" depart="62.00">
        <route edges="gneE6 gneE3"/>
    </vehicle>
    <vehicle id="route_2.14" depart="62.00">
        <route edges="gneE0 gneE1"/>
    </vehicle>
    <vehicle id="route_5.16" depart="62.00">
        <route edges="gneE4 gneE7"/>
    </vehicle>
    <vehicle id="route_9.18" depart="62.00">
        <route edges="gneE6 gneE7"/>
    </vehicle>
    <vehicle id="route_0.19" depart="63.00">
        <route edges="gneE0 gneE3"/>
    </vehicle>
    <vehicle id="route_1.30" depart="63.00">
        <route edges="gneE0 gneE2"/>
    </vehicle>
    <vehicle id="route_10.36" depart="63.00">
        <route edges="gneE6 gneE3"/>
    </vehicle>
    <vehicle id="route_6.13" depart="63.00">
        <route edges="gneE5 gneE1"/>
    </vehicle>
    <vehicle id="route_7.34" depart="63.00">
        <route edges="gneE5 gneE7"/>
    </vehicle>
    <vehicle id="route_10.37" depart="64.00">
        <route edges="gneE6 gneE3"/>
    </vehicle>
    <vehicle id="route_4.30" depart="64.00">
        <route edges="gneE4 gneE1"/>
    </vehicle>
    <vehicle id="route_5.17" depart="64.00">
        <route edges="gneE4 gneE7"/>
    </vehicle>
    <vehicle id="route_7.35" depart="64.00">
        <route edges="gneE5 gneE7"/>
    </vehicle>
    <vehicle id="route_1.31" depart="65.00">
        <route edges="gneE0 gneE2"/>
    </vehicle>
    <vehicle id="route_10.38" depart="65.00">
        <route edges="gneE6 gneE3"/>
    </vehicle>
    <vehicle id="route_2.15" depart="65.00">
        <route edges="gneE0 gneE1"/>
    </vehicle>
    <vehicle id="route_8.13" depart="65.00">
        <route edges="gneE5 gneE3"/>
    </vehicle>
    <vehicle id="route_9.19" depart="65.00">
        <route edges="gneE6 gneE7"/>
    </vehicle>
    <vehicle id="route_2.16" depart="66.00">
        <route edges="gneE0 gneE1"/>
    </vehicle>
    <vehicle id="route_7.36" depart="66.00">
        <route edges="gneE5 gneE7"/>
    </vehicle>
    <vehicle id="route_0.20" depart="67.00">
        <route edges="gneE0 gneE3"/>
    </vehicle>
    <vehicle id="route_10.39" depart="67.00">
        <route edges="gneE6 gneE3"/>
    </vehicle>
    <vehicle id="route_11.19" depart="67.00">
        <route edges="gneE6 gneE2"/>
    </vehicle>
    <vehicle id="route_4.31" depart="67.00">
        <route edges="gneE4 gneE1"/>
    </vehicle>
    <vehicle id="route_6.14" depart="67.00">
        <route edges="gneE5 gneE1"/>
    </vehicle>
    <vehicle id="route_7.37" depart="67.00">
        <route edges="gneE5 gneE7"/>
    </vehicle>
    <vehicle id="route_0.21" depart="68.00">
        <route edges="gneE0 gneE3"/>
    </vehicle>
    <vehicle id="route_1.32" depart="68.00">
        <route edges="gneE0 gneE2"/>
    </vehicle>
    <vehicle id="route_3.16" depart="68.00">
        <route edges="gneE4 gneE2"/>
    </vehicle>
    <vehicle id="route_9.20" depart="68.00">
        <route edges="gneE6 gneE7"/>
    </vehicle>
    <vehicle id="route_11.20" depart="69.00">
        <route edges="gneE6 gneE2"/>
    </vehicle>
    <vehicle id="route_4.32" depart="69.00">
        <route edges="gneE4 gneE1"/>
    </vehicle>
    <vehicle id="route_5.18" depart="69.00">
        <route edges="gneE4 gneE7"/>
    </vehicle>
    <vehicle id="route_7.38" depart="69.00">
        <route edges="gneE5 gneE7"/>
    </vehicle>
    <vehicle id="route_8.14" depart="69.00">
        <route edges="gneE5 gneE3"/>
    </vehicle>
    <vehicle id="route_1.33" depart="70.00">
        <route edges="gneE0 gneE2"/>
    </vehicle>
    <vehicle id="route_11.21" depart="70.00">
        <route edges="gneE6 gneE2"/>
    </vehicle>
    <vehicle id="route_1.34" depart="71.00">
        <route edges="gneE0 gneE2"/>
    </vehicle>
    <vehicle id="route_10.40" depart="71.00">
        <route edges="gneE6 gneE3"/>
    </vehicle>
    <vehicle id="route_4.33" depart="71.00">
        <route edges="gneE4 gneE1"/>
    </vehicle>
    <vehicle id="route_6.15" depart="71.00">
        <route edges="gneE5 gneE1"/>
    </vehicle>
    <vehicle id="route_0.22" depart="72.00">
        <route edges="gneE0 gneE3"/>
    </vehicle>
    <vehicle id="route_1.35" depart="72.00">
        <route edges="gneE0 gneE2"/>
    </vehicle>
    <vehicle id="route_4.34" depart="72.00">
        <route edges="gneE4 gneE1"/>
    </vehicle>
    <vehicle id="route_8.15" depart="72.00">
        <route edges="gneE5 gneE3"/>