<?xml version="1.0" encoding="UTF-8"?>

<!-- generated on 2021-10-11 15:38:38 by Eclipse SUMO netedit Version 1.10.0
<configuration xmlns:xsi="http://www.w3.org/2001/XMLSchema-instance" xsi:noNamespaceSchemaLocation="http://sumo.dlr.de/xsd/netconvertConfiguration.xsd">

    <output>
        <output-file value="D:\D\Application\Sumo\file\Baitaptuan.net.xml"/>
    </output>

    <processing>
        <offset.disable-normalization value="true"/>
    </processing>

    <junctions>
        <no-turnarounds value="true"/>
    </junctions>

    <report>
        <aggregate-warnings value="5"/>
    </report>

</configuration>
-->

<net version="1.9" junctionCornerDetail="5" limitTurnSpeed="5.50" xmlns:xsi="http://www.w3.org/2001/XMLSchema-instance" xsi:noNamespaceSchemaLocation="http://sumo.dlr.de/xsd/net_file.xsd">

    <location netOffset="0.00,0.00" convBoundary="6.91,13.08,118.95,88.41" origBoundary="10000000000.00,10000000000.00,-10000000000.00,-10000000000.00" projParameter="!"/>

    <edge id=":gneJ1_0" function="internal">
        <lane id=":gneJ1_0_0" index="0" speed="6.51" length="9.03" shape="55.53,58.91 55.18,56.46 54.13,54.71 52.38,53.66 49.93,53.31"/>
    </edge>
    <edge id=":gneJ1_1" function="internal">
        <lane id=":gneJ1_1_0" index="0" speed="13.89" length="14.40" shape="55.53,58.91 55.53,44.51"/>
    </edge>
    <edge id=":gneJ1_2" function="internal">
        <lane id=":gneJ1_2_0" index="0" speed="8.00" length="5.93" shape="55.53,58.91 56.08,55.06 57.13,53.31"/>
    </edge>
    <edge id=":gneJ1_12" function="internal">
        <lane id=":gneJ1_12_0" index="0" speed="8.00" length="8.26" shape="57.13,53.31 57.73,52.31 60.48,50.66 64.33,50.11"/>
    </edge>
    <edge id=":gneJ1_3" function="internal">
        <lane id=":gneJ1_3_0" index="0" speed="6.51" length="9.03" shape="64.33,53.31 61.88,53.66 60.13,54.71 59.08,56.46 58.73,58.91"/>
    </edge>
    <edge id=":gneJ1_4" function="internal">
        <lane id=":gneJ1_4_0" index="0" speed="13.89" length="14.40" shape="64.33,53.31 49.93,53.31"/>
    </edge>
    <edge id=":gneJ1_5" function="internal">
        <lane id=":gneJ1_5_0" index="0" speed="8.00" length="14.19" shape="64.33,53.31 60.48,52.76 57.73,51.11 56.08,48.36 55.53,44.51"/>
    </edge>
    <edge id=":gneJ1_6" function="internal">
        <lane id=":gneJ1_6_0" index="0" speed="6.51" length="9.03" shape="58.73,44.51 59.08,46.96 60.13,48.71 61.88,49.76 64.33,50.11"/>
    </edge>
    <edge id=":gneJ1_7" function="internal">
        <lane id=":gneJ1_7_0" index="0" speed="13.89" length="14.40" shape="58.73,44.51 58.73,58.91"/>
    </edge>
    <edge id=":gneJ1_8" function="internal">
        <lane id=":gneJ1_8_0" index="0" speed="8.00" length="5.93" shape="58.73,44.51 58.18,48.36 57.13,50.11"/>
    </edge>
    <edge id=":gneJ1_13" function="internal">
        <lane id=":gneJ1_13_0" index="0" speed="8.00" length="8.26" shape="57.13,50.11 56.53,51.11 53.78,52.76 49.93,53.31"/>
    </edge>
    <edge id=":gneJ1_9" function="internal">
        <lane id=":gneJ1_9_0" index="0" speed="6.51" length="9.03" shape="49.93,50.11 52.38,49.76 54.13,48.71 55.18,46.96 55.53,44.51"/>
    </edge>
    <edge id=":gneJ1_10" function="internal">
        <lane id=":gneJ1_10_0" index="0" speed="13.89" length="14.40" shape="49.93,50.11 64.33,50.11"/>
    </edge>
    <edge id=":gneJ1_11" function="internal">
        <lane id=":gneJ1_11_0" index="0" speed="8.00" length="14.19" shape="49.93,50.11 53.78,50.66 56.53,52.31 58.18,55.06 58.73,58.91"/>
    </edge>

    <edge id="gneE0" from="gneJ0" to="gneJ1" priority="-1">
        <lane id="gneE0_0" index="0" speed="13.89" length="43.02" shape="6.91,50.11 49.93,50.11"/>
    </edge>
    <edge id="gneE1" from="gneJ1" to="gneJ2" priority="-1">
        <lane id="gneE1_0" index="0" speed="13.89" length="29.50" shape="58.73,58.91 58.73,88.41"/>
    </edge>
    <edge id="gneE2" from="gneJ1" to="gneJ3" priority="-1">
        <lane id="gneE2_0" index="0" speed="13.89" length="54.61" shape="64.33,50.11 118.95,50.11"/>
    </edge>
    <edge id="gneE3" from="gneJ1" to="gneJ4" priority="-1">
        <lane id="gneE3_0" index="0" speed="13.89" length="31.43" shape="55.53,44.51 55.53,13.08"/>
    </edge>
    <edge id="gneE4" from="gneJ4" to="gneJ1" priority="-1">
        <lane id="gneE4_0" index="0" speed="13.89" length="31.43" shape="58.73,13.08 58.73,44.51"/>
    </edge>
    <edge id="gneE5" from="gneJ3" to="gneJ1" priority="-1">
        <lane id="gneE5_0" index="0" speed="13.89" length="54.61" shape="118.95,53.31 64.33,53.31"/>
    </edge>
    <edge id="gneE6" from="gneJ2" to="gneJ1" priority="-1">
        <lane id="gneE6_0" index="0" speed="13.89" length="29.50" shape="55.53,88.41 55.53,58.91"/>
    </edge>
    <edge id="gneE7" from="gneJ1" to="gneJ0" priority="-1">
        <lane id="gneE7_0" index="0" speed="13.89" length="43.02" shape="49.93,53.31 6.91,53.31"/>
    </edge>

    <junction id="gneJ0" type="dead_end" x="6.91" y="51.71" incLanes="gneE7_0" intLanes="" shape="6.91,51.71 6.91,54.91 6.91,51.71"/>
    <junction id="gneJ1" type="priority" x="57.13" y="51.71" incLanes="gneE6_0 gneE5_0 gneE4_0 gneE0_0" intLanes=":gneJ1_0_0 :gneJ1_1_0 :gneJ1_12_0 :gneJ1_3_0 :gneJ1_4_0 :gneJ1_5_0 :gneJ1_6_0 :gneJ1_7_0 :gneJ1_13_0 :gneJ1_9_0 :gneJ1_10_0 :gneJ1_11_0" shape="53.93,58.91 60.33,58.91 60.78,56.69 61.33,55.91 62.11,55.35 63.11,55.02 64.33,54.91 64.33,48.51 62.11,48.06 61.33,47.51 60.78,46.73 60.44,45.73 60.33,44.51 53.93,44.51 53.49,46.73 52.93,47.51 52.15,48.06 51.15,48.40 49.93,48.51 49.93,54.91 52.15,55.35 52.93,55.91 53.49,56.69 53.82,57.69">
        <request index="0"  response="000000000000" foes="000100010000" cont="0"/>
        <request index="1"  response="000000000000" foes="111100110000" cont="0"/>
        <request index="2"  response="000011000000" foes="110011110000" cont="1"/>
        <request index="3"  response="000010000000" foes="100010000000" cont="0"/>
        <request index="4"  response="000110000111" foes="100110000111" cont="0"/>
        <request index="5"  response="011110000110" foes="011110000110" cont="0"/>
        <request index="6"  response="000000000000" foes="010000000100" cont="0"/>
        <request index="7"  response="000000000000" foes="110000111100" cont="0"/>
        <request index="8"  response="000000000011" foes="110000110011" cont="1"/>
        <request index="9"  response="000000000010" foes="000000100010" cont="0"/>
        <request index="10" response="000111000110" foes="000111100110" cont="0"/>
        <request index="11" response="000110011110" foes="000110011110" cont="0"/>
    </junction>
    <junction id="gneJ2" type="dead_end" x="57.13" y="88.41" incLanes="gneE1_0" intLanes="" shape="57.13,88.41 60.33,88.41 57.13,88.41"/>
    <junction id="gneJ3" type="dead_end" x="118.95" y="51.71" incLanes="gneE2_0" intLanes="" shape="118.95,51.71 118.95,48.51 118.95,51.71"/>
    <junction id="gneJ4" type="dead_end" x="57.13" y="13.08" incLanes="gneE3_0" intLanes="" shape="57.13,13.08 53.93,13.08 57.13,13.08"/>

    <junction id=":gneJ1_12_0" type="internal" x="57.13" y="53.31" incLanes=":gneJ1_2_0 gneE4_0" intLanes=":gneJ1_4_0 :gneJ1_5_0 :gneJ1_6_0 :gneJ1_7_0 :gneJ1_10_0 :gneJ1_11_0"/>
    <junction id=":gneJ1_13_0" type="internal" x="57.13" y="50.11" incLanes=":gneJ1_8_0 gneE6_0" intLanes=":gneJ1_0_0 :gneJ1_1_0 :gneJ1_4_0 :gneJ1_5_0 :gneJ1_10_0 :gneJ1_11_0"/>

    <connection from="gneE0" to="gneE3" fromLane="0" toLane="0" via=":gneJ1_9_0" dir="r" state="m"/>
    <connection from="gneE0" to="gneE2" fromLane="0" toLane="0" via=":gneJ1_10_0" dir="s" state="m"/>
    <connection from="gneE0" to="gneE1" fromLane="0" toLane="0" via=":gneJ1_11_0" dir="l" state="m"/>
    <connection from="gneE4" to="gneE2" fromLane="0" toLane="0" via=":gneJ1_6_0" dir="r" state="M"/>
    <connection from="gneE4" to="gneE1" fromLane="0" toLane="0" via=":gneJ1_7_0" dir="s" state="M"/>
    <connection from="gneE4" to="gneE7" fromLane="0" toLane="0" via=":gneJ1_8_0" dir="l" state="m"/>
    <connection from="gneE5" to="gneE1" fromLane="0" toLane="0" via=":gneJ1_3_0" dir="r" state="m"/>
    <connection from="gneE5" to="gneE7" fromLane="0" toLane="0" via=":gneJ1_4_0" dir="s" state="m"/>
    <connection from="gneE5" to="gneE3" fromLane="0" toLane="0" via=":gneJ1_5_0" dir="l" state="m"/>
    <connection from="gneE6" to="gneE7" fromLane="0" toLane="0" via=":gneJ1_0_0" dir="r" state="M"/>
    <connection from="gneE6" to="gneE3" fromLane="0" toLane="0" via=":gneJ1_1_0" dir="s" state="M"/>
    <connection from="gneE6" to="gneE2" fromLane="0" toLane="0" via=":gneJ1_2_0" dir="l" state="m"/>

    <connection from=":gneJ1_0" to="gneE7" fromLane="0" toLane="0" dir="r" state="M"/>
    <connection from=":gneJ1_1" to="gneE3" fromLane="0" toLane="0" dir="s" state="M"/>
    <connection from=":gneJ1_2" to="gneE2" fromLane="0" toLane="0" via=":gneJ1_12_0" dir="l" state="m"/>
    <connection from=":gneJ1_12" to="gneE2" fromLane="0" toLane="0" dir="l" state="M"/>
    <connection from=":gneJ1_3" to="gneE1" fromLane="0" toLane="0" dir="r" state="M"/>
    <connection from=":gneJ1_4" to="gneE7" fromLane="0" toLane="0" dir="s" state="M"/>
    <connection from=":gneJ1_5" to="gneE3" fromLane="0" toLane="0" dir="l" state="M"/>
    <connection from=":gneJ1_6" to="gneE2" fromLane="0" toLane="0" dir="r" state="M"/>
    <connection from=":gneJ1_7" to="gneE1" fromLane="0" toLane="0" dir="s" state="M"/>
    <connection from=":gneJ1_8" to="gneE7" fromLane="0" toLane="0" via=":gneJ1_13_0" dir="l" state="m"/>
    <connection from=":gneJ1_13" to="gneE7" fromLane="0" toLane="0" dir="l" state="M"/>
    <connection from=":gneJ1_9" to="gneE3" fromLane="0" toLane="0" dir="r" state="M"/>
    <connection from=":gneJ1_10" to="gneE2" fromLane="0" toLane="0" dir="s" state="M"/>
    <connection from=":gneJ1_11" to="gneE1" fromLane="0" toLane="0" dir="l" state="M"/>

</net>
